Version 4.1
SHEET 1 880 680
SYMBOL voltage 16 96 R0
SYMATTR InstName V1
